<?xml version="1.0" encoding="UTF-8"?>

<!-- generated on Wed Oct 30 16:48:06 2019 by SUMO duarouter Version 0.25.0
<?xml version="1.0" encoding="UTF-8"?>

<configuration xmlns:xsi="http://www.w3.org/2001/XMLSchema-instance" xsi:noNamespaceSchemaLocation="http://sumo.dlr.de/xsd/duarouterConfiguration.xsd">

    <input>
        <net-file value="cities/boston/sumoCfg/boston.net.xml"/>
        <additional-files value="cities/boston/sumoCfg/boston.vType.xml"/>
        <trip-files value="trips.trips.xml"/>
    </input>

    <output>
        <output-file value="cities/boston/sumoCfg/boston.rou.xml"/>
    </output>

    <processing>
        <ignore-errors value="true"/>
    </processing>

    <time>
        <begin value="0"/>
        <end value="100.0"/>
    </time>

    <report>
        <no-warnings value="true"/>
        <no-step-log value="true"/>
    </report>

</configuration>
-->

<routes xmlns:xsi="http://www.w3.org/2001/XMLSchema-instance" xsi:noNamespaceSchemaLocation="http://sumo.dlr.de/xsd/routes_file.xsd">
    <route id="0" edges="385457093 496762690#1 9125018 120723515 -595894349 -595894341 -595894345 -9124828#10 -9124828#9 -9124828#8 -9124828#7 -9124828#6 -9124828#5 -9124828#4 -9124828#3 -9124828#2 9123678#0 9123678#1 -9124387#4"/>
    <route id="1" edges="9184994#3 9184994#5 9184994#6 9184994#7 9184994#8 9184994#9 9184994#10 9184994#11 384946642#1 384946642#2 384946642#3 384946642#4 384946642#5 384946642#6 384946642#7 384946642#9 591284894#0 591284894#1 -9184528#7 -9184528#6 -9184528#5 -9184528#2 -9184528#1 -9184528#0 646611581#1 646611581#2 9335266#0 9335266#1 -385021726#4 -385021726#3 -385021726#2 -385021726#1 385021726#1"/>
    <route id="2" edges="247259727 -646611581#0 9184528#1 9184528#2 9184528#4 9184528#6 9184528#7 591284894#2 591284894#3 591284894#4 591284894#5 591284894#7"/>
    <route id="3" edges="9184504#3 9184504#4 -119549968#0 9184528#4 9184528#6 9184528#7 -591284894#1 -591284894#0 -384946642#9 -384946642#7 -384946642#6 -384946642#5 -384946642#4 -384946642#3 -384946642#2 9184606 -9185389#0"/>
    <route id="4" edges="-9126898#2 -9126898#1 120722949#3 385486719#0 -9126108 -727746069#1 -727746069#0 9124236#0 9124236#1 9124236#2 9124236#3 278069750 -79797248#1 -79797248#0 -9124358 -121190171#13 -121190171#12 -121190171#11 -121190171#10 -121190171#9 -121190171#8 -121190171#7 -121190171#6 -121190171#5 -121190171#4 -121190171#3 -121190171#2 -121190171#1 -121190171#0 121190175#0 121190175#1 121190174#0 121190174#2 121190174#3 121190174#4 121190174#5 121190174#6 121190174#7 121190174#8 121190174#9 121190174#10 -541011941#1 -541011941#0 -544504267 -541013625 -9335326 -384910094#7 -384910094#6 -384910094#5 -384910094#3 -384910094#1 -384910094#0 -646611582 -9335266#1 -9335266#0 -646611581#2 -646611581#1 -646611581#0 9184528#1 9184528#2 9184528#4 9184528#6 9184528#7 591284894#2 -9185305#1 -9185305#0 -9184827 -9184567#0"/>
    <route id="5" edges="-9124159#2 9124159#2 727746069#4 727746069#5 727746069#6 -385461555#4 -385461555#3 -385461555#1 -385461555#0 -120724252#3 -120724252#2 -120724252#1 -120724252#0 -494955607#1 -9124051 9124828#4 9124828#5 9124828#6 9124828#7 9124828#8 -9124828#8"/>
    <route id="6" edges="9124293 9124387#8 -487501943#6 -487501943#5 -487501943#4 -487501943#3 -487501943#2 -487501943#1 -487501943#0 9126910 487500878 -541856532#2 -541856532#1 -541856532#0 -9124445 121194849 426488345#0 426488345#1 278069750 -79797248#1 -79797248#0 -9124358 -121190171#13 -121190171#12 -121190171#11 -121190171#10 -121190171#9 -121190171#8 -121190171#7 -121190171#6 -121190171#5 -121190171#4 -121190171#3 -121190171#2 -121190171#1 -121190171#0 121190175#0 121190175#1 121190174#0 121190174#2 121190174#3 121190174#4 121190174#5 121190174#6 121190174#7 121190174#8 121190174#9 121190174#10 -541011941#1 -541011941#0 -544504267 -541013625 -9335326 -384910094#7 -384910094#6 -384910094#5 -384910094#3 -384910094#1 -384910094#0 -646611582 -9335266#1 -9335266#0 -646611581#2 -646611581#1 -646611581#0 9184528#1 9184528#2 9184528#4 9184528#6 9184528#7 -591284894#1 -591284894#0 -384946642#9 -384946642#7 -9184212#10 -9184212#9 -9184212#8 -9184212#7 9185447#0 -9185447#0"/>
    <route id="7" edges="76845252 76845252-AddedOffRampEdge 76845271#1 76845275#0 426630360#3 426630360#4 426630360#5 426630363 385053526#0 385053526#1 385053526#2 385053526#3 385053526#4 9334887#0 9334887#1 9334887#2 9334887#3 9334887#4 9334887#5 9334887#6 9334887#7 9334887#8 119281299#0 119281299#1 119281297#0 119281297#1 119281297#2 119280239#0 119280239#1 544504267 541011941#0 541011941#1 -121190174#10 -121190174#9 -121190174#8 -121190174#7 -121190174#6 -121190174#5 -121190174#4 -121190174#3 -121190174#2 -121190174#0 9336046 121190171#0 121190171#1 121190171#2 121190171#3 121190171#4 121190171#5 121190171#6 121190171#7 121190171#8 121190171#9 121190171#10 121190171#11 121190171#12 121190171#13 121190171#14 79797248#0 79797248#1 278069751#0 278069751#1 278069751#2 278069751#3-AddedOnRampEdge 278069751#3 9124658 9124445 541856532#0 541856532#1 541856532#2 487500877#1 487502489#0 487502489#1 487501943#0 487501943#1 487501943#2 487501943#3 487501943#4 487501943#5 487501943#6 487501943#7 487501943#8 9124828#1 9124828#2 9124828#3 9124051 494955607#1 120724252#0 120724252#1"/>
    <route id="8" edges="-9124872 9124872 -77722793#1 -77722793#0 -518391609#1 -518391609#0 -595894349 -595894341 -595894345 -9124828#10 9124828#10"/>
    <route id="9" edges="120724252#2 120724252#3 385461555#0 385461555#1 -385461785#1"/>
    <route id="10" edges="9184255#1 -9184255#1 -9184255#0 9184212#4 9184212#5 9184212#6 9184212#7 9184212#8 9184212#9 9184212#10 384946642#7 384946642#9"/>
    <route id="11" edges="9184212#9 9184212#10 384946642#7 384946642#9 591284894#0 591284894#1 -9184528#7 -9184528#6 -9184528#5 -9184528#2 -9184528#1 -9184528#0 646611581#1 646611581#2 9335266#0 9335266#1 646611582 384910094#0 384910094#1 384910094#3 384910094#5 384910094#6 384910094#7 384910094#8 541013625 544504267 541011941#0 541011941#1 -121190174#10 -121190174#9 -121190174#8 -121190174#7 -121190174#6 -121190174#5 -121190174#4 -121190174#3 -121190174#2 -121190174#0 9336046 121190171#0 121190171#1 121190171#2 121190171#3 121190171#4 121190171#5 121190171#6 121190171#7 121190171#8 466944173#0 466944173#1 466944173#2 466944173#3"/>
    <route id="12" edges="-9125900#1 9125900#1 385457093 496762690#1 9125018 120723515 -595894349 -595894341 -595894345 -9124828#10 -9124828#9 -9124828#8 -9124828#7 -9124828#6 -9124828#5 -9124828#4 9124051 -494955607#0 -120724251#2 120724251#2"/>
    <route id="13" edges="9184114 386737308#1 -9184255#1 -9184255#0 9184212#4 9184212#5 9184212#6 9184212#7 9184212#8 9184212#9 9184212#10 -384946642#6 -384946642#5 -384946642#4 -384946642#3 -384946642#2 -384946642#1 -9184994#11 -9184994#10 -9184994#9 -9184994#8 -9184994#7 -9184994#6 -9184994#5 -9184994#3 9184860#0 9184860#1 9184860#2 385931617"/>
    <route id="14" edges="9334881#0 9334881#1 9334881#2 9334881#3 9334881#3-AddedOffRampEdge 9336074 93394247#0 93394247#1 384910094#8 541013625 544504267 541011941#0 541011941#1 -121190174#10 -121190174#9 -121190174#8 -9335013#2 -9335013#1"/>
    <route id="15" edges="119126750#1 693973241 426630350#4-AddedOnRampEdge 426630350#4 426630360#2 426630360#3 394216691#1 9184866#1-AddedOnRampEdge"/>
    <route id="16" edges="386073686#1 -119127172 -119127178#2 -119127178#1 384946642#6 384946642#7 384946642#9 591284894#0 591284894#1 -9184528#7 -9184528#6 -9184528#5 -9184528#2 -9184528#1 -9184528#0 646611581#1 646611581#2 9335266#0 9335266#1 -385021726#4 -385021726#3 -385021726#2 -385021726#1 -385021726#0 -9335136#7 384623192 384623191#1 -385021727#1 -385021727#0 -385020826#6 -385020826#5 -385020826#4 -385020826#3 -385020826#2 -384604688 -340011516#1"/>
    <route id="17" edges="9334881#4 9334881#5 -9335256#1 -9335256#0 -117446583#2 -117446583#1 -117446583#0 -646611582 -9335266#1 -9335266#0 -646611581#2 -646611581#1 -646611581#0 9184528#1 9184528#2 9184528#4 9184528#6 9184528#7 -591284894#1 -591284894#0 -384946642#9 -384946642#7 -384946642#6 119127178#0 119127178#2 -386073689#1 9185337#0 9185337#1 9185337#2"/>
    <route id="18" edges="9184255#2 386737233#0 386737233#1 386737233#2 386737233#3 384946642#9 591284894#0 591284894#1 -9184528#7 -9184528#6 -9184528#5 -9184528#2 -9184528#1 -9184528#0 646611581#1 646611581#2 9335266#0 9335266#1 646611582 384910094#0 384910094#1 384910094#3 384910094#5 384910094#6 384910094#7 384910094#8 541013625 544504267 541011941#0 541011941#1 -121190174#10 -121190174#9 -121190174#8 -121190174#7 -121190174#6 -121190174#5 -121190174#4 -121190174#3 -121190174#2 -121190174#0 9336046 121190171#0 121190171#1 121190171#2 121190171#3 121190171#4 121190171#5 121190171#6 121190171#7 121190171#8 121190171#9 121190171#10 121190171#11 121190171#12 121190171#13 121190171#14 79797248#0 79797248#1 278069751#0 278069751#1 278069751#2 278069751#3-AddedOnRampEdge 278069751#3 9124658 9124445 541856532#0 541856532#1 541856532#2 487500877#1 487502489#0 487502489#1 487501943#0 487501943#1 487501943#2 487501943#3 77858788 496553074#0 496553074#1 496553074#3 496553074#4 496406657#0 -496406657#0"/>
    <route id="19" edges="-9184620#3 -9184823#2 -9184823#1 -9184823#0 9184617#2 -591284894#7 -591284894#5 -591284894#4 -591284894#3 -591284894#2 -591284894#1 -591284894#0 -384946642#9 -384946642#7 -9184212#10 -9184212#9 -9184212#8 -9184212#7 -9184212#6 -9184212#5 -9184212#4 9184255#0 -9184660 386734171#0 -9184274"/>
    <route id="20" edges="-496406657#0 496406657#0 496406657#1 496406657#2 120722949#0 120722949#1 120722949#3 385486719#0 -9126108 -727746069#1 -727746069#0 117451258 101855569-AddedOnRampEdge 101855569 101855569-AddedOffRampEdge 119126750#1 9184445#0 9184445#1-AddedOnRampEdge 9184445#1 76845261"/>
    <route id="21" edges="9335157#2 385020832#0 385020832#1 385042626 646611582 384910094#0 384910094#1 384910094#3 9335081"/>
    <route id="22" edges="-487501672#0 487501672#0 487501672#1 487501672#2 487502489#0 487502489#1 487501943#0 487501943#1 487501943#2 487501943#3 487501943#4 487501943#5 487501943#6 487501943#7 487501943#8 9124828#1 9124828#2 9124828#3 9124828#4 9124828#5 9124828#6 9124828#7 9124828#8 9124828#9 9124828#10 595894345 595894341 595894349 595894338 518391609#1 -9126410#3 -9126410#2 9126410#2"/>
    <route id="23" edges="-541856532#0 -9124445 121194849 426488345#0 426488345#1 9123266#0 9123266#1 9123266#2-AddedOnRampEdge 9123266#2 117451258 101855569-AddedOnRampEdge 101855569 101855569-AddedOffRampEdge 9335103"/>
    <route id="24" edges="175115089 -727746069#0 9124236#0 9124236#1 9124236#2 9124236#3 278069750 -79797248#1 -79797248#0 -9124358 -121190171#13 -121190171#12 -121190171#11 -121190171#10 -121190171#9 -121190171#8 -121190171#7 -121190171#6 -121190171#5 -121190171#4 -121190171#3 -121190171#2 -121190171#1 -121190171#0 121190175#0 121190175#1 121190174#0 121190174#2 121190174#3 121190174#4 121190174#5 121190174#6 121190174#7 121190174#8 121190174#9 121190174#10 -541011941#1 -541011941#0 -544504267 -541013625 -9335326 -384910094#7 -384910094#6 -384910094#5 -384910094#3 -384910094#1 -384910094#0 -646611582 -9335266#1 -9335266#0 -646611581#2 -646611581#1 -646611581#0 9184528#1 9184528#2 9184528#4 9184528#6 9184528#7 -591284894#1 -591284894#0 -384946642#9 -384946642#7 -9184212#10 -9184212#9 -9184212#8 -9184212#7 9185447#0 -9185447#0"/>
    <route id="25" edges="9334824#1 385020826#5 385020826#6 385021727#0 385021727#1 384623190 9335136#4 9335136#5 9335136#6 9335136#7 385021726#0 385021726#1 385021726#2 385021726#3 385021726#4 -9335266#1 -9335266#0 -646611581#2 -646611581#1 -646611581#0 9184528#1 9184528#2 9184528#4 9184528#6 9184528#7 -591284894#1 -591284894#0 -384946642#9 -384946642#7 -9184212#10 -9184212#9 -9184212#8 9184324#0 9184324#1 -386060330#2 -386060330#1 -386060330#0"/>
    <route id="26" edges="-119549968#0 -9184528#2 -9184528#1 -9184528#0 646611581#1 646611581#2 9335266#0 9335266#1 646611582 384910094#0 384910094#1 384910094#3 384910094#5 384910094#6 384910094#7 384910094#8 541013625 544504267 541011941#0 541011941#1 -121190174#10 -121190174#9 -121190174#8 -121190174#7 -121190174#6 -121190174#5 -121190174#4 -121190174#3 -121190174#2 -121190174#0 9336046 121190171#0 121190171#1 121190171#2 121190171#3 121190171#4 121190171#5 121190171#6 121190171#7 121190171#8 121190171#9 121190171#10 121190171#11 121190171#12 121190171#13 121190171#14 79797248#0 79797248#1 278069751#0 278069751#1 278069751#2 278069751#3-AddedOnRampEdge 278069751#3 9124658 9124445 541856532#0 541856532#1 541856532#2 487500877#1 487502489#0 487502489#1 487501943#0 487501943#1 487501943#2 487501943#3 487501943#4 487501943#5 487501943#6 487501943#7 487501943#8 9124828#1 9124828#2 9124828#3 9124828#4 9124828#5 9124828#6 9124828#7 9124828#8 9124828#9 9124828#10 595894345 595894341 595894349 595894338 518391609#1 77722793#0 9124075#0 497775270#0 497775270#1 497775270#3"/>
    <route id="27" edges="9184617#2 -591284894#7 -591284894#5 -591284894#4 -591284894#3 -591284894#2 -591284894#1 9184228#0"/>
    <route id="28" edges="727746069#14 -727746069#14 9123910#0 -9123352 385343930#1 385343930#2 120723515 -595894349 -595894341 -595894345 -9124828#10 -9124828#9 -9124828#8 -9124828#7 -9124828#6 -9124828#5 -9124828#4 9124051"/>
    <route id="29" edges="101855569 101855569-AddedOffRampEdge 9335103 426630360#5 426630363 385053526#0 385053526#1 385053526#2 385053526#3 385053526#4 9334887#0 9334887#1 9334887#2 9334887#3 9334887#4 9334887#5 9334887#6 9334887#7 9334887#8 9334887#9 9334887#10 9334887#11 9334887#12-AddedOnRampEdge 9334887#12"/>
    <route id="30" edges="119280241#2 119280241#3 119280241#4 119280241#5 -9335372#0 119280239#1 544504267 541011941#0 541011941#1 -121190174#10 -121190174#9 -121190174#8 -121190174#7 -121190174#6 -121190174#5 -121190174#4 -121190174#3 -121190174#2 -121190174#0 9336046 121190171#0 121190171#1 121190171#2 121190171#3 121190171#4 121190171#5 121190171#6 121190171#7 121190171#8 121190171#9 121190171#10 121190171#11 121190171#12 121190171#13 121190171#14 79797248#0 79797248#1 278069751#0 278069751#1 278069751#2 278069751#3-AddedOnRampEdge 278069751#3 9124658 9124445 541856532#0 541856532#1 541856532#2 487500877#1 487502489#0 487502489#1 487501943#0 487501943#1 487501943#2 487501943#3 487501943#4 487501943#5 487501943#6 487501943#7 487501943#8 9124828#1 9124828#2 9124828#3 9124828#4 9124828#5 9124828#6 9124828#7 9124828#8 9124828#9 9124828#10 595894345 595894341 595894349 595894338 518391609#1 -9126410#3 -9126410#2 -9126410#1 -9125854#2 -9125854#1 -9125854#0"/>
    <route id="31" edges="-9335950 -9335835 385053526#4 9334887#0 9334887#1 9334887#2 9334887#3 9334887#4 9334887#5 9334887#6 9334887#7 9334887#8 9334887#9 9334887#10 119281301 119281298 119281296 -9335326 -384910094#7 -384910094#6 -384910094#5 -384910094#3 -384910094#1 -384910094#0 -646611582 -9335266#1 -9335266#0 -646611581#2 -646611581#1 -646611581#0 9184528#1 9184528#2 9184528#4 9184528#6 9184528#7 591284894#2 591284894#3 -9184701"/>
    <route id="32" edges="9185389#0 9185389#1 384946642#1 384946642#2 384946642#3 384946642#4 384946642#5 384946642#6 384946642#7 384946642#9 591284894#0 591284894#1 -9184528#7 -9184528#6 -9184528#5 -9184528#2 -9184528#1 -9184528#0 646611581#1 646611581#2 9335266#0 9335266#1 646611582 384910094#0 384910094#1 384910094#3 384910094#5 384910094#6 384910094#7 384910094#8 541013625 544504267 541011941#0 541011941#1 -121190174#10 -121190174#9 -121190174#8 -121190174#7 -121190174#6 -121190174#5 -121190174#4 -121190174#3 -121190174#2 -121190174#0 9336046 121190171#0 121190171#1 121190171#2 121190171#3 121190171#4 121190171#5 121190171#6 121190171#7 121190171#8 121190171#9 121190171#10 121190171#11 121190171#12 121190171#13 121190171#14 79797248#0 79797248#1 278069751#0 278069751#1 278069751#2 278069751#3-AddedOnRampEdge 278069751#3 9124658 9124445 541856532#0 541856532#1 541856532#2 487500877#1 487502489#0 487502489#1 487501943#0 487501943#1 487501943#2 487501943#3 487501943#4 487501943#5 487501943#6 487501943#7 487501943#8 9124828#1 9124828#2 9124828#3 9124828#4 9124828#5 9124828#6 9124828#7 9124828#8 9124828#9 9124828#10 595894345 595894341 595894349 595894338 518391609#1 77722793#0 77722793#1 -77722793#1"/>
    <route id="33" edges="-121193865#2 -121193865#1 79675122 121193864#1 -9123545"/>
    <route id="34" edges="-9335261 -9335091#0 385021727#0 385021727#1 384623190 9335136#4 9335136#5 9335136#6 9335136#7 385021726#0 385021726#1 385021726#2 385021726#3 385021726#4 646611582 384910094#0 384910094#1 384910094#3 384910094#5 384910094#6 384910094#7 384910094#8 541013625 544504267 541011941#0 541011941#1 -121190174#10 -121190174#9 -121190174#8 -121190174#7 -121190174#6 -121190174#5 -121190174#4 -121190174#3 -121190174#2 -121190174#0 9336046 121190171#0 121190171#1 121190171#2 121190171#3 121190171#4 121190171#5 121190171#6 121190171#7 121190171#8 121190171#9 121190171#10 121190171#11 121190171#12 121190171#13 121190171#14 79797248#0 79797248#1 278069751#0 278069751#1 278069751#2 278069751#3-AddedOnRampEdge 278069751#3 9124658 9124445 541856532#0 541856532#1 541856532#2 487500877#1 487502489#0 487502489#1 487501943#0 487501943#1 487501943#2 487501943#3 487501943#4 487501943#5 487501943#6 487501943#7 487501943#8 9124828#1 9124828#2 9124828#3 9124828#4 9124828#5 9124828#6 9124828#7 9124828#8 9124828#9 9124828#10 595894345 595894341 120723518 9125018 -385343930#2 -385343930#1 -385343930#0 9123562"/>
    <route id="35" edges="76845237#0 76845237#1-AddedOnRampEdge 76845237#1 76845237#2 9124627 9124236#1 121194850 278069751#3-AddedOnRampEdge 278069751#3 9124658 9124445 541856532#0 541856532#1 541856532#2 487500877#1 487502489#0 487502489#1 487501943#0 487501943#1 487501943#2 487501943#3 487501943#4 487501943#5 487501943#6 487501943#7 487501943#8 9124828#1 9124828#2 9124828#3 9124828#4 9124828#5 -9124020 494955608#1 -496567510 -496578714#0 -9123797#3 -9123797#1 -9124544#12"/>
    <route id="36" edges="-9334789 9335889#3 -541011941#1 -541011941#0 -544504267 -541013625 -9335326 -384910094#7 -384910094#6 -384910094#5 -384910094#3 -384910094#1 -384910094#0 -646611582 -9335266#1 -9335266#0 -646611581#2 -646611581#1 -646611581#0 9184528#1 9184528#2 9184528#4 9184528#6 9184528#7 -591284894#1 -591284894#0 263900120 -591284892#6"/>
    <route id="37" edges="-9335136#3 9335136#3 9335136#4 9335136#5 9335136#6 9335136#7 385021726#0 385021726#1 385021726#2 385021726#3 385021726#4 646611582 384910094#0 384910094#1 384910094#3 384910094#5 384910094#6 384910094#7 578515206 119280240 384620721 9334881#5 9334881#6 426630366#0 426630366#1 426630350#0 426630350#1 426630350#1-AddedOffRampEdge 9184866#0 9184866#1-AddedOnRampEdge 9184866#1 9184445#1-AddedOnRampEdge 9184445#1 76845261"/>
    <route id="38" edges="-9123524#1 -9123524#0 120724251#0 120724251#1 120724251#2 494955607#0 -9124051 9124828#4 9124828#5 9124828#6 9124828#7 9124828#8 9124828#9 9124828#10 595894345 595894341 595894349 595894338 518391609#1 77722793#0 77722793#1 -9124872 9126094#1 9124260"/>
    <route id="39" edges="-9335596 9334887#1 9334887#2 9334887#3 9334887#4 9334887#5 9334887#6 9334887#7 9334887#8 119281299#0 119281299#1 119281297#0 119281297#1 119281297#2 119280239#0 119280239#1 544504267 541011941#0 541011941#1 -121190174#10 -121190174#9 -121190174#8 -121190174#7 -121190174#6 -121190174#5 -121190174#4 -121190174#3 -121190174#2 -121190174#0 9336046 121190171#0 121190171#1 121190171#2 121190171#3 121190171#4 121190171#5 121190171#6 121190171#7 121190171#8 121190171#9 121190171#10 121190171#11 121190171#12 121190171#13 121190171#14 79797248#0 121194848 9123266#2-AddedOnRampEdge 9123266#2 175115089 727746069#1 727746069#2 727746069#3 727746069#4 727746069#5 727746069#6 727746069#7 727746069#8 727746069#9 727746069#10 727746069#11 727746069#12 727746069#13 727746069#14 727746069#15 9125999"/>
    <route id="40" edges="-93394247#1 93394247#1 578515206 119280240 384620721 9334881#5 9334881#6 426630366#0 426630366#1 426630350#0 426630350#1 426630350#1-AddedOffRampEdge 426630350#2 426630350#3 426630350#4-AddedOnRampEdge 426630350#4 426630360#2 76845275#1 76845242#1-AddedOnRampEdge 76845242#1"/>
    <route id="41" edges="120724252#0 -120724252#0 -494955607#1 -9124051 -9124828#3 -9124828#2 -9124828#1 -9124828#0 -487501943#7 -487501943#6 -487501943#5 -487501943#4 -487501943#3 -487501943#2 -487501943#1 -487501943#0 9126910 487500878 -541856532#2 -541856532#1 -541856532#0 -9124445 121194849 426488345#0 426488345#1 121194847#0 121194847#1 -570834600#2 -570834600#1"/>
    <route id="42" edges="9184860#2 -9184860#2 -9184860#1 -9184860#0 9184994#3 9184994#5 9184994#6 9184994#7 9184994#8 9184994#9 9184994#10 9184994#11 384946642#1 384946642#2 384946642#3 384946642#4 384946642#5 384946642#6 384946642#7 384946642#9 591284894#0 591284894#1 -9184528#7 -9184528#6 -9184528#5 -9184528#2 -9184528#1 -9184528#0 646611581#1 646611581#2 9335266#0 9335266#1 646611582 384910094#0 384910094#1 384910094#3 384910094#5 384910094#6 384910094#7 384910094#8 541013625 544504267 541011941#0 541011941#1 -121190174#10 -121190174#9 -121190174#8 -121190174#7 -121190174#6 -121190174#5 -121190174#4 -121190174#3 -121190174#2 -121190174#0 9336046 121190171#0 121190171#1 121190171#2 121190171#3 121190171#4 121190171#5 121190171#6 121190171#7 121190171#8 121190171#9 121190171#10 121190171#11 121190171#12 121190171#13 121190171#14 79797248#0 121194848 9123266#2-AddedOnRampEdge 9123266#2 175115089 727746069#1"/>
    <route id="43" edges="9126094#1 -9126094#1 9124872 -77722793#1 -77722793#0 -518391609#1 -518391609#0 -595894349 120723518 9125018 -385343930#2 -385343930#1 9123352 -9123910#0 727746069#14 727746069#15 9125999 119128943#1 426630360#0 426630360#1 426630360#2 426630360#3 394216691#1 9184866#1-AddedOnRampEdge 9184866#1 9184445#1-AddedOnRampEdge 9184445#1 76845261"/>
    <route id="44" edges="76845253 76845252 76845252-AddedOffRampEdge 76845271#1 76845275#0 426630360#3 426630360#4 426630360#5 426630363 385053526#0 385053526#1 385053526#2 -9334841 9334841"/>
    <route id="45" edges="-121190174#3 121190174#3 121190174#4 121190174#5 121190174#6 121190174#7 121190174#8 121190174#9 121190174#10 -541011941#1 -541011941#0 -544504267 -541013625 -9335326 -384910094#7 -384910094#6 -384910094#5 -384910094#3 -384910094#1 -384910094#0 -646611582 -385021726#4 -385021726#3 -385021726#2 -385021726#1 -385021726#0 -9335136#7 384623192 -9335136#4 -9335136#3 -9335136#2 -9335136#1 -9335136#0 9184617#0 9184617#1"/>
    <route id="46" edges="-9336081#0 120608069#1 120608069#2 121190171#0 121190171#1 121190171#2 121190171#3 121190171#4 121190171#5 121190171#6 121190171#7 121190171#8 121190171#9 121190171#10 121190171#11 121190171#12 121190171#13 121190171#14 79797248#0 79797248#1 278069751#0 278069751#1 278069751#2 278069751#3-AddedOnRampEdge 278069751#3 9126399 76845231#2-AddedOnRampEdge 76845231#2 76845231#3 76845231#4"/>
    <route id="47" edges="9126410#1 9126410#2 9126410#3 -518391609#1 -518391609#0 -595894349 -595894341 -595894345 -9124828#10 -9124828#9 -9124828#8 -9124828#7 -9124828#6 -9124828#5 -9124828#4 -9124828#3 -9124828#2 -9124828#1 -9124828#0 -487501943#7 -487501943#6 -487501943#5 -487501943#4 -487501943#3 -487501943#2 -487501943#1 -487501943#0 9126910 487500878 -541856532#2 -541856532#1 -541856532#0 -9124445 121194849 426488345#0 426488345#1 278069750 -79797248#1 -79797248#0 -9124358 -121190171#13 -121190171#12 -121190171#11 -121190171#10 -121190171#9 -121190171#8 -121190171#7 -121190171#6 -121190171#5 -121190171#4 -121190171#3 -121190171#2 -121190171#1 -121190171#0 121190175#0 121190175#1 121190174#0 121190174#2 121190174#3 121190174#4 121190174#5 121190174#6 121190174#7 121190174#8 121190174#9 121190174#10 -541011941#1 -541011941#0 -544504267 -541013625 -9335326 -384910094#7 -384910094#6 -384910094#5 -384910094#3 -384910094#1 -384910094#0 -646611582 -9335266#1 -9335266#0 -646611581#2 -646611581#1 -646611581#0 9184528#1 9184528#2 -9184528#2"/>
    <route id="48" edges="9123216#1 -9123216#1 -9123216#0 -9124828#2 -9124828#1 -9124828#0 -487501943#7 -487501943#6 -487501943#5 -487501943#4 -487501943#3 -487501943#2 -487501943#1 -487501943#0 9126910 487500878 -541856532#2 -541856532#1 -541856532#0 -9124445 121194849 426488345#0 426488345#1 278069750 -79797248#1 -79797248#0 -9124358 -121190171#13 -121190171#12 -121190171#11 -121190171#10 -121190171#9 -121190171#8 -121190171#7 -121190171#6 -121190171#5 -121190171#4 -121190171#3 -121190171#2 -121190171#1 -121190171#0 121190175#0 121190175#1 121190174#0 121190174#2 121190174#3 121190174#4 121190174#5 121190174#6 121190174#7 121190174#8 121190174#9 121190174#10 -541011941#1 -541011941#0 -544504267 -541013625 -9335326 -384910094#7 -384910094#6 -384910094#5 -384910094#3 -384910094#1 -384910094#0 -646611582 -9335266#1 -9335266#0 -646611581#2 -646611581#1 -646611581#0 9184528#1 9184528#2 9184528#4 9184528#6 9184528#7 -591284894#1 -591284894#0 -384946642#9 -384946642#7 -384946642#6 119127178#0 119127178#2 386073686#1"/>
    <route id="49" edges="385461555#1 385461555#3 385461555#4 -727746069#6 -727746069#5 -727746069#4 -727746069#3 -727746069#2 -727746069#1 -727746069#0 9124236#0 9124236#1 9124236#2 9124236#3 278069750 -79797248#1 -79797248#0 -9124358 -121190171#13 -121190171#12 -121190171#11 -121190171#10 -121190171#9 -121190171#8 -121190171#7 -121190171#6 -121190171#5 -121190171#4 -121190171#3 -121190171#2 -121190171#1 -121190171#0 121190175#0 121190175#1 121190174#0 121190174#2 121190174#3 121190174#4 121190174#5 121190174#6 121190174#7 121190174#8 121190174#9 121190174#10 -541011941#1 -541011941#0 -544504267 -541013625 -9335326 -384910094#7 -384910094#6 -384910094#5 -384910094#3 -384910094#1 -384910094#0 -646611582 -9335266#1 -9335266#0 -646611581#2 -646611581#1 -646611581#0 9184528#1 9184528#2 9184528#4 9184528#6 9184528#7 -591284894#1 -591284894#0 -384946642#9 -384946642#7 384946642#7"/>
    <route id="50" edges="9335431#2 -9335431#2 -9335431#1 -9335431#0 -117446583#1 -117446583#0 384910094#0 384910094#1 384910094#3 384910094#5 384910094#6 384910094#7 384910094#8 541013625 544504267 541011941#0 541011941#1 -121190174#10 -121190174#9 -121190174#8 -121190174#7 -121190174#6 -121190174#5 -121190174#4 -121190174#3 -121190174#2 -121190174#0 9336046 121190171#0 121190171#1 121190171#2 121190171#3 121190171#4 121190171#5 121190171#6 121190171#7 121190171#8 121190171#9 121190171#10 121190171#11 121190171#12 121190171#13 121190171#14 79797248#0 79797248#1 278069751#0 278069751#1 278069751#2 278069751#3-AddedOnRampEdge 278069751#3 9124658 9124445 541856532#0 541856532#1 541856532#2 487500877#1 487502489#0 487502489#1 487501943#0 487501943#1 -9124158#1"/>
</routes>
