<?xml version="1.0" encoding="UTF-8"?>

<!-- generated on Wed Oct 30 16:48:04 2019 by SUMO polyconvert Version 0.25.0
<?xml version="1.0" encoding="UTF-8"?>

<configuration xmlns:xsi="http://www.w3.org/2001/XMLSchema-instance" xsi:noNamespaceSchemaLocation="http://sumo.dlr.de/xsd/polyconvertConfiguration.xsd">

    <input>
        <net-file value="/home/mps/src/osm2sumo/cities/boston/sumoCfg/boston.net.xml"/>
        <osm-files value="cities/boston/sumoCfg/boston_bbox.osm.xml"/>
        <osm.keep-full-type value="false"/>
        <type-file value="/home/mps/src/osm2sumo/typemap/Polyconvert.typ.xml"/>
    </input>

    <output>
        <output-file value="/home/mps/src/osm2sumo/cities/boston/sumoCfg/boston.poly.xml"/>
    </output>

    <processing>
        <poi-layer-offset value="5"/>
    </processing>

</configuration>
-->

<additional xmlns:xsi="http://www.w3.org/2001/XMLSchema-instance" xsi:noNamespaceSchemaLocation="http://sumo.dlr.de/xsd/additional_file.xsd">
    <location netOffset="-313156.97,-4681842.99" convBoundary="-3255.66,-3540.81,5794.35,8029.21" origBoundary="-71.303780,42.233776,-71.197605,42.339302" projParameter="+proj=utm +zone=19 +ellps=WGS84 +datum=WGS84 +units=m +no_defs"/>

    <poly id="101855520" type="highway" color="26,26,26" fill="0" layer="-1.00" shape="1519.23,6283.05 1512.31,6317.19"/>
    <poly id="101855552" type="highway" color="26,26,26" fill="0" layer="-1.00" shape="1505.37,6351.40 1473.12,6505.72"/>
    <poly id="101855569" type="highway" color="26,26,26" fill="0" layer="-1.00" shape="1482.13,6355.68 1488.85,6323.06"/>
    <poly id="113191354" type="highway" color="26,26,26" fill="0" layer="-1.00" shape="3279.64,5250.24 3278.11,5247.94 3248.12,5218.36 3233.92,5202.15 3218.50,5180.98 3209.53,5168.37 3195.13,5146.48 3159.89,5093.06 3131.05,5054.55 3115.37,5036.06"/>
    <poly id="117446583" type="highway" color="26,26,26" fill="0" layer="-1.00" shape="1796.36,5032.42 1878.05,5072.67 1887.27,5077.17 1892.54,5079.31 1897.48,5080.94 1903.39,5082.54 1909.63,5083.86 1971.30,5095.88 1980.70,5097.59 1987.24,5098.43 1994.24,5098.98 2062.64,5102.15 2126.65,5105.02 2156.21,5106.74 2169.62,5107.49 2177.56,5108.26 2184.39,5109.13 2190.14,5110.11 2195.57,5111.52 2200.52,5113.36 2205.57,5115.79 2210.88,5118.94 2228.43,5129.35 2283.74,5163.07 2288.48,5166.37 2293.29,5169.80 2297.56,5173.46 2301.87,5177.41 2306.52,5182.07 2310.92,5187.07 2315.16,5192.26 2319.16,5197.75 2322.73,5203.22 2328.08,5212.20 2330.82,5216.40 2333.69,5220.12 2337.05,5223.31 2341.25,5226.25 2345.67,5228.80 2350.65,5231.25 2355.66,5233.56 2361.23,5235.53 2411.92,5250.79"/>
    <poly id="117447489" type="highway" color="26,26,26" fill="0" layer="-1.00" shape="2379.54,5587.67 2387.44,5550.77 2394.37,5512.34 2396.34,5505.77 2397.80,5500.46 2398.70,5495.27 2398.95,5490.39 2398.54,5485.21 2398.19,5480.08 2398.60,5470.70 2402.67,5434.66 2403.41,5430.13 2404.70,5425.69 2406.52,5421.62 2409.06,5417.20"/>
    <poly id="117447491" type="highway" color="26,26,26" fill="0" layer="-1.00" shape="2417.62,5568.83 2413.45,5570.13 2409.24,5571.13 2405.67,5571.49 2402.69,5571.26 2399.86,5570.72 2397.22,5569.77 2394.89,5568.52 2392.76,5566.82 2391.40,5565.20 2390.01,5563.37 2389.01,5561.66 2388.05,5559.42 2387.37,5556.76 2387.12,5553.77 2387.44,5550.77"/>
    <poly id="117447494" type="highway" color="26,26,26" fill="0" layer="-1.00" shape="2409.06,5417.20 2410.17,5421.14 2410.97,5425.29 2411.32,5429.50 2411.30,5434.81 2407.10,5471.66 2406.81,5476.30 2407.05,5480.94 2407.49,5486.19 2408.48,5496.59 2408.47,5503.07 2408.17,5514.43 2408.80,5518.09 2409.80,5521.47 2410.95,5524.17 2421.88,5545.86 2422.87,5548.31 2423.56,5551.32 2423.72,5554.39 2423.48,5556.80 2422.88,5559.36 2421.90,5561.82 2420.88,5563.66 2419.67,5565.98 2417.62,5568.83 2415.36,5571.11 2413.14,5572.80 2410.19,5574.46 2407.31,5576.04 2404.07,5577.22 2400.77,5578.27 2390.77,5579.79 2387.85,5580.66 2385.35,5581.75 2383.13,5583.29 2381.09,5585.48 2379.54,5587.67"/>
    <poly id="117448251" type="highway" color="26,26,26" fill="0" layer="-1.00" shape="2381.43,5662.47 2342.80,5825.38"/>
    <poly id="117448253" type="highway" color="26,26,26" fill="0" layer="-1.00" shape="2366.82,5651.87 2326.62,5821.85"/>
    <poly id="117448258" type="highway" color="26,26,26" fill="0" layer="-1.00" shape="2559.44,5660.50 2554.12,5660.19 2549.07,5661.65 2544.73,5664.63 2541.08,5669.14 2537.91,5674.94 2531.14,5692.92 2529.36,5696.11 2527.38,5698.89 2525.67,5700.84 2523.65,5702.81 2520.84,5705.05 2516.95,5707.40 2512.01,5709.40 2507.97,5710.23 2506.06,5710.62 2499.75,5710.65 2493.50,5709.37 2490.00,5708.15 2472.28,5700.53 2397.62,5669.24 2381.43,5662.47 2374.84,5659.71 2372.95,5658.94 2371.34,5657.94 2370.11,5656.94 2369.21,5656.01 2368.57,5655.19 2368.25,5654.75 2367.50,5653.49 2366.82,5651.87 2366.33,5649.96 2366.15,5647.82 2366.38,5645.50 2379.54,5587.67"/>
    <poly id="117448259" type="highway" color="26,26,26" fill="0" layer="-1.00" shape="2360.82,5825.17 2397.62,5669.24"/>
    <poly id="117448260" type="highway" color="26,26,26" fill="0" layer="-1.00" shape="2497.85,5753.19 2507.97,5710.23"/>
    <poly id="117448261" type="highway" color="26,26,26" fill="0" layer="-1.00" shape="2475.88,5767.87 2490.00,5708.15"/>
    <poly id="117448262" type="highway" color="26,26,26" fill="0" layer="-1.00" shape="2400.77,5578.27 2399.25,5579.79 2398.15,5581.44 2397.46,5583.80 2397.19,5586.36 2397.39,5588.74 2397.93,5590.85 2398.69,5592.64 2399.83,5594.33 2401.45,5596.01"/>
    <poly id="117448263" type="highway" color="26,26,26" fill="0" layer="-1.00" shape="2452.79,5783.29 2472.28,5700.53"/>
    <poly id="117448407" type="highway" color="26,26,26" fill="0" layer="-1.00" shape="2558.58,5619.54 2559.96,5629.86 2560.68,5640.86 2560.34,5652.77 2559.44,5660.50 2557.69,5670.02 2554.26,5682.23 2550.56,5693.12 2546.14,5701.84 2540.38,5709.92 2534.82,5716.90 2527.73,5724.80 2519.75,5732.95 2512.20,5739.76 2505.50,5745.88 2497.85,5753.19 2488.39,5759.77 2475.88,5767.87 2452.79,5783.29 2437.07,5793.30 2424.21,5800.46 2406.73,5808.64 2386.58,5816.22 2360.82,5825.17 2356.05,5826.66 2352.12,5826.87 2347.97,5826.51 2342.80,5825.38 2326.62,5821.85"/>
    <poly id="117448870" type="highway" color="26,26,26" fill="0" layer="-1.00" shape="2586.73,5287.51 2557.73,5310.34"/>
    <poly id="117449482" type="highway" color="26,26,26" fill="0" layer="-1.00" shape="2576.75,5352.18 2548.72,5373.86 2543.47,5377.02 2538.55,5379.00 2535.25,5380.01 2531.11,5380.86 2526.75,5380.88 2522.38,5379.98 2519.00,5378.60 2516.19,5376.89 2514.05,5375.13 2512.46,5373.49 2511.37,5372.12 2510.68,5371.15 2509.43,5369.04 2508.24,5366.21 2500.37,5346.28"/>
    <poly id="117450570" type="highway" color="26,26,26" fill="0" layer="-1.00" shape="3164.15,5525.21 3139.47,5533.04 3134.29,5535.02 3129.72,5537.39 3126.21,5540.02 3123.81,5542.52 3121.88,5545.37 3117.69,5556.37"/>
    <poly id="117451258" type="highway" color="26,26,26" fill="0" layer="-1.00" shape="1316.28,6634.79 1327.31,6624.35 1335.53,6616.25 1345.40,6605.75 1414.05,6527.31 1417.87,6522.85 1421.30,6518.50 1424.79,6513.57 1427.48,6509.25 1429.56,6505.50 1431.72,6501.10 1433.56,6497.04 1435.23,6492.67 1436.82,6488.13 1438.28,6483.30 1449.31,6447.28 1452.66,6437.05 1456.58,6425.61 1460.58,6414.18 1464.46,6402.76 1468.76,6390.54 1473.08,6379.06 1482.13,6355.68"/>
    <poly id="117591992" type="highway" color="26,26,26" fill="0" layer="-1.00" shape="2900.11,5747.41 2912.18,5780.20"/>
    <poly id="117592000" type="highway" color="26,26,26" fill="0" layer="-1.00" shape="2635.57,5827.41 2638.11,5826.55 2640.07,5825.67 2644.96,5823.27 2647.55,5822.15 2653.97,5819.81 2706.29,5801.12"/>
    <poly id="117592001" type="highway" color="26,26,26" fill="0" layer="-1.00" shape="2770.75,5794.48 2790.04,5846.91 2790.52,5849.00 2790.79,5851.96 2790.67,5854.33 2790.36,5857.83"/>
    <poly id="117592004" type="highway" color="26,26,26" fill="0" layer="-1.00" shape="2711.78,5815.93 2706.29,5801.12 2682.93,5738.07 2682.04,5735.81 2681.00,5733.59 2679.80,5731.24"/>
    <poly id="117755188" type="water" color="181,209,209" fill="1" layer="-4.00" shape="3233.34,5380.45 3230.43,5383.50 3228.87,5385.49 3227.36,5388.73 3227.12,5391.36 3225.93,5394.59 3222.80,5399.46 3218.11,5403.34 3214.60,5407.74 3211.98,5411.99 3208.22,5414.59 3201.69,5420.19 3196.20,5423.42 3191.33,5427.19 3185.07,5432.45 3180.82,5437.37 3175.01,5441.31 3170.37,5444.93 3161.92,5448.44 3153.58,5451.75 3143.94,5452.35 3134.62,5452.07 3125.70,5451.31 3117.78,5451.43 3109.33,5452.66 3101.48,5454.32 3093.73,5456.91 3085.09,5460.01 3077.95,5461.95 3066.33,5463.12 3054.67,5463.20 3040.94,5463.06 3030.85,5462.26 3026.27,5463.11 3024.39,5466.14 3024.23,5470.36 3026.74,5474.70 3032.88,5480.10 3041.99,5485.04 3048.31,5489.34 3056.18,5493.42 3064.08,5495.78 3072.86,5498.76 3081.94,5499.37 3091.54,5499.55 3102.89,5499.62 3112.67,5499.81 3123.96,5499.40 3131.03,5498.69 3137.39,5497.36 3142.04,5494.90 3143.89,5490.31 3148.06,5486.04 3155.13,5483.02 3161.77,5477.13 3165.34,5469.85 3168.47,5463.84 3171.51,5459.10 3175.66,5457.01 3179.32,5453.38 3184.48,5447.74 3188.57,5443.00 3192.89,5439.15 3196.27,5433.32 3200.36,5428.82 3206.44,5424.47 3211.43,5420.80 3214.83,5415.43 3218.23,5410.27 3222.30,5405.10 3227.05,5400.78 3230.05,5396.96 3230.16,5392.77 3232.07,5389.42 3235.34,5385.27 3233.34,5380.45"/>
    <poly id="117755725" type="landuse" color="194,194,130" fill="1" layer="-3.00" shape="3024.23,5470.36 3024.39,5466.14 3026.27,5463.11 3030.85,5462.26 3040.94,5463.06 3054.67,5463.20 3066.33,5463.12 3077.95,5461.95 3085.09,5460.01 3093.73,5456.91 3101.48,5454.32 3109.33,5452.66 3117.78,5451.43 3125.70,5451.31 3134.62,5452.07 3143.94,5452.35 3153.58,5451.75 3161.92,5448.44 3170.37,5444.93 3175.01,5441.31 3180.82,5437.37 3185.07,5432.45 3191.33,5427.19 3196.20,5423.42 3201.69,5420.19 3208.22,5414.59 3211.98,5411.99 3214.60,5407.74 3218.11,5403.34 3222.80,5399.46 3225.93,5394.59 3227.12,5391.36 3227.36,5388.73 3228.87,5385.49 3230.43,5383.50 3233.34,5380.45 3235.94,5376.97 3239.75,5370.48 3241.81,5364.69 3246.88,5355.30 3255.71,5346.26 3263.64,5336.80 3266.34,5329.67 3266.29,5319.31 3263.83,5310.35 3263.41,5302.42 3268.72,5294.13 3276.60,5290.83 3285.64,5289.49 3291.24,5286.79 3299.37,5283.20 3254.94,5242.76 3251.20,5251.02 3228.55,5229.47 3227.68,5238.23 3221.16,5241.96 3222.92,5248.23 3214.90,5258.07 3216.08,5267.92 3209.59,5281.73 3206.41,5300.46 3195.99,5334.46 3135.17,5400.24 3100.94,5415.98 3065.79,5422.88 3056.71,5427.23 3016.86,5433.77 3022.53,5446.48 3017.05,5448.38 3017.59,5458.46 3024.23,5470.36"/>
    <poly id="118521673" type="highway" color="26,26,26" fill="0" layer="-1.00" shape="3066.44,5526.14 3047.59,5528.18 3035.78,5529.85 3026.90,5531.37 3016.99,5533.45 3009.47,5535.46 3003.25,5537.31 2997.28,5539.37 2991.52,5541.64 2985.89,5544.19 2981.27,5546.50 2976.32,5549.74 2970.94,5553.54 2966.24,5557.36 2961.70,5561.43 2957.25,5566.19 2952.79,5571.62 2908.74,5626.09 2894.34,5646.41 2889.16,5652.50 2883.80,5658.33 2878.94,5662.95 2873.72,5667.65 2868.73,5671.62 2863.78,5675.34 2858.92,5678.44 2853.91,5681.33 2848.47,5684.12 2843.24,5686.61 2837.73,5688.82 2832.06,5690.83 2826.36,5692.68 2820.90,5694.21 2814.99,5695.64 2809.17,5696.67 2802.90,5697.44 2797.13,5697.93 2680.88,5704.99 2676.13,5705.42 2671.27,5706.04 2666.07,5706.93 2661.01,5708.22 2656.17,5709.94 2651.49,5711.89 2646.81,5714.35 2642.81,5716.94 2638.37,5720.21 2581.28,5768.45 2571.12,5776.57 2560.56,5784.61 2550.21,5792.05 2539.94,5799.20 2529.47,5805.94 2518.65,5812.69 2507.25,5818.94 2496.05,5824.54 2484.98,5829.75 2472.62,5834.83"/>
    <poly id="118840157" type="boundary" color="255,84,84" fill="1" layer="0.00" shape="1556.65,6426.80 1551.04,6424.33 1538.37,6420.64 1504.20,6412.95 1485.00,6508.75 1490.28,6504.08 1497.81,6497.08 1505.33,6489.79 1512.45,6482.77 1519.13,6475.23 1526.05,6467.25 1533.36,6458.72 1540.20,6450.66 1545.88,6443.29 1549.97,6437.43 1553.52,6431.96 1556.65,6426.80"/>
    <poly id="118840157#1" type="landuse" color="194,194,130" fill="1" layer="-3.00" shape="1556.65,6426.80 1551.04,6424.33 1538.37,6420.64 1504.20,6412.95 1485.00,6508.75 1490.28,6504.08 1497.81,6497.08 1505.33,6489.79 1512.45,6482.77 1519.13,6475.23 1526.05,6467.25 1533.36,6458.72 1540.20,6450.66 1545.88,6443.29 1549.97,6437.43 1553.52,6431.96 1556.65,6426.80"/>
    <poly id="118840163" type="boundary" color="255,84,84" fill="1" layer="0.00" shape="1562.18,6418.04 1554.80,6414.53 1540.95,6410.49 1506.30,6403.24 1504.20,6412.95 1538.37,6420.64 1551.04,6424.33 1556.65,6426.80 1562.18,6418.04"/>
    <poly id="118840163#1" type="landuse" color="194,194,130" fill="1" layer="-3.00" shape="1562.18,6418.04 1554.80,6414.53 1540.95,6410.49 1506.30,6403.24 1504.20,6412.95 1538.37,6420.64 1551.04,6424.33 1556.65,6426.80 1562.18,6418.04"/>
    <poly id="119008647" type="water" color="181,209,209" fill="1" layer="-4.00" shape="2969.96,5754.15 2968.36,5754.00 2967.88,5753.80 2967.37,5753.49 2967.06,5753.23 2966.81,5752.96 2966.60,5752.72 2966.33,5752.26 2966.14,5751.80 2965.99,5751.25 2965.95,5750.64 2966.02,5749.94 2966.21,5749.29 2966.43,5748.82 2966.63,5748.52 2966.91,5748.19 2967.02,5748.08 2967.38,5747.78 2967.82,5747.50 2968.41,5747.26 2968.96,5747.13 2969.65,5747.10 2971.02,5747.14 2972.27,5747.65 2972.83,5747.88 2973.18,5748.09 2973.53,5748.36 2973.92,5748.76 2974.19,5749.14 2974.37,5749.45 2974.55,5749.91 2974.69,5750.53 2974.73,5751.23 2974.69,5751.57 2974.58,5752.08 2974.35,5752.65 2974.20,5752.91 2973.92,5753.31 2973.80,5753.46 2973.57,5753.67 2973.28,5753.90 2972.81,5754.18 2972.27,5754.41 2971.52,5754.56 2969.96,5754.15"/>
    <poly id="119008648" type="water" color="181,209,209" fill="1" layer="-4.00" shape="2931.47,5764.05 2934.54,5763.95 2939.48,5762.70 2942.32,5761.53 2942.94,5759.97 2942.43,5757.56 2939.95,5755.42 2934.84,5754.89 2929.53,5754.81 2926.90,5755.77 2925.20,5758.01 2924.83,5760.89 2925.77,5762.84 2928.57,5763.89 2931.47,5764.05"/>
    <poly id="119009169" type="commercial" color="209,209,204" fill="1" layer="-3.00" shape="3131.26,5540.16 3029.29,5542.04 2976.65,5563.17 2877.89,5681.09 2829.59,5703.41 2659.88,5718.12 2603.15,5761.38 2607.87,5776.92 2580.27,5797.12 2577.00,5800.47 2572.91,5804.30 2563.61,5812.73 2529.99,5836.80 2519.07,5843.93 2506.81,5850.80 2498.95,5856.96 2492.72,5860.50 2488.56,5873.47 2479.55,5891.99 2474.32,5911.28 2468.63,5922.55 2494.07,5970.32 2606.48,5921.71 2641.51,5906.44 2766.66,5890.64 2780.27,5891.04 2793.49,5892.17 2808.61,5894.31 2820.74,5896.12 2912.70,5918.93 2926.21,5921.65 2937.53,5920.87 2949.41,5918.01 2959.69,5910.63 2967.42,5901.98 2972.72,5890.50 2979.33,5870.82 3014.56,5716.24 3106.70,5680.93 3131.26,5540.16"/>
    <poly id="119009507" type="highway" color="26,26,26" fill="0" layer="-1.00" shape="2411.92,5250.79 2353.63,5448.10 2352.11,5453.75 2351.01,5458.83 2350.04,5465.43"/>
    <poly id="119010357" type="water" color="181,209,209" fill="1" layer="-4.00" shape="2666.63,5354.43 2667.28,5355.12 2667.87,5355.94 2668.35,5356.78 2668.79,5357.89 2669.11,5359.27 2669.18,5360.72 2669.09,5361.73 2668.81,5362.90 2668.34,5364.08 2667.91,5364.86 2667.32,5365.66 2650.45,5386.42 2648.85,5387.59 2647.08,5388.46 2647.87,5386.64 2649.13,5384.71 2649.62,5384.23 2649.97,5383.82 2650.51,5383.07 2650.90,5382.37 2651.33,5381.28 2651.59,5380.21 2651.68,5379.30 2651.61,5377.95 2651.32,5376.68 2650.91,5375.66 2650.47,5374.89 2649.92,5374.14 2649.33,5373.50 2649.00,5373.20 2648.30,5372.67 2647.51,5372.20 2646.42,5371.76 2641.98,5351.27 2642.45,5350.10 2642.73,5348.93 2642.82,5347.93 2642.75,5346.48 2642.44,5345.11 2642.00,5344.01 2641.52,5343.17 2640.92,5342.36 2640.29,5341.68 2639.92,5341.33 2639.17,5340.77 2638.30,5340.26 2638.26,5337.49 2637.13,5334.05 2634.55,5329.63 2631.61,5326.04 2629.93,5322.04 2630.28,5317.49 2630.83,5313.06 2631.55,5308.12 2630.07,5302.76 2627.85,5298.40 2629.42,5297.85 2631.33,5297.17 2641.19,5311.91 2644.04,5319.04 2647.08,5328.68 2649.48,5335.41 2653.13,5340.82 2657.81,5345.18 2661.52,5348.50 2666.63,5354.43"/>
    <poly id="119010358" type="water" color="181,209,209" fill="0" layer="-4.00" shape="2661.66,4103.30 2663.60,4101.49 2666.66,4100.08 2670.42,4099.98 2701.39,4099.62 2705.66,4100.20 2712.50,4101.10 2717.80,4101.38 2723.15,4101.48 2726.36,4101.88 2729.53,4103.99 2731.57,4107.59 2732.64,4112.48 2732.62,4117.97 2732.66,4123.71 2734.15,4129.84 2736.56,4133.29 2738.89,4136.58 2739.97,4140.71 2739.54,4145.56 2739.87,4149.74 2738.91,4155.28 2736.38,4159.98 2730.41,4168.50 2725.31,4176.58 2723.68,4182.12 2723.17,4187.86 2721.68,4198.48 2717.30,4208.52 2711.61,4217.68 2708.43,4222.54 2707.55,4226.06 2707.46,4229.32 2709.60,4235.39 2711.27,4239.98 2711.61,4244.81 2710.22,4250.58 2706.21,4258.19 2702.36,4267.11 2699.68,4274.90 2698.01,4282.65 2695.62,4292.85 2694.93,4300.37 2694.74,4310.06 2694.79,4320.20 2695.03,4329.23 2695.59,4342.44 2696.66,4349.02 2698.62,4356.47 2700.80,4363.68 2705.68,4380.98 2707.16,4386.89 2707.53,4392.61 2706.36,4398.58 2704.11,4405.48 2700.95,4411.52 2695.05,4418.52 2691.58,4421.25 2686.08,4424.02 2683.58,4426.66 2680.41,4428.42 2669.79,4433.73"/>
    <poly id="119125371" type="water" color="181,209,209" fill="1" layer="-4.00" shape="1947.25,5974.64 1970.00,5961.95 1979.69,5959.28 1994.75,5957.19 2009.06,5955.53 2034.06,5955.75 2063.50,5956.74 2086.80,5958.00 2096.43,5957.34 2106.73,5955.28 2113.80,5954.76 2101.23,5947.70 2089.60,5942.87 2078.01,5940.12 2064.33,5937.43 2047.57,5934.65 2031.06,5935.26 2009.40,5938.95 1998.27,5941.81 1983.98,5944.98 1974.35,5947.19 1970.36,5948.78 1966.58,5951.79 1961.30,5959.41 1953.60,5968.41 1947.25,5974.64"/>
    <poly id="119126750" type="highway" color="26,26,26" fill="0" layer="-1.00" shape="1495.82,6289.26 1501.99,6259.59 1510.91,6221.98 1522.10,6190.75 1531.32,6166.03 1543.42,6139.68 1554.27,6118.08 1565.22,6099.44 1577.38,6081.50 1590.41,6063.58 1619.44,6027.93 1634.37,6011.92 1650.25,5997.54 1666.23,5983.35 1681.75,5971.10 1700.19,5956.84 1719.84,5943.21 1745.67,5927.94 1768.58,5916.04 1793.89,5905.05 1818.76,5895.06 1842.33,5887.26 1866.98,5880.13 1892.64,5874.11 1917.46,5870.01 1943.26,5866.62 1970.17,5865.24 2000.36,5864.66 2041.40,5868.27 2151.86,5879.47 2164.19,5880.76 2175.54,5881.81 2187.67,5882.68 2199.88,5883.20 2212.22,5883.53 2224.16,5883.50 2235.79,5883.14 2248.24,5882.50 2260.25,5881.60 2272.26,5880.37 2284.67,5878.80 2296.31,5876.96 2307.97,5874.84 2320.56,5872.24 2332.07,5869.39 2343.27,5866.56 2354.90,5863.17 2366.06,5859.70 2377.69,5855.80 2389.57,5851.48 2400.11,5847.16 2412.27,5841.74 2422.76,5836.98 2433.79,5831.39 2444.29,5825.80 2447.16,5824.18 2454.60,5819.97 2464.93,5813.78 2476.24,5806.77 2485.99,5800.43 2495.50,5794.01 2505.11,5787.11 2514.96,5779.78 2525.18,5771.88 2533.59,5764.88 2543.73,5756.41 2552.51,5748.86 2561.66,5740.81 2570.76,5731.98 2579.35,5723.38 2587.57,5714.81 2596.09,5705.46 2604.07,5696.29 2611.88,5686.85 2619.63,5677.38 2627.03,5667.61 2634.38,5657.42 2641.11,5647.79 2730.13,5536.77"/>
    <poly id="119127172" type="highway" color="26,26,26" fill="0" layer="-1.00" shape="2786.45,5023.16 2788.54,5024.67 2789.70,5026.34 2790.49,5028.32 2791.01,5030.70 2792.60,5053.67 2796.66,5100.54 2799.47,5131.44 2800.09,5136.21 2800.85,5140.29 2802.06,5145.09 2803.44,5150.17 2805.27,5155.83 2807.49,5161.60 2810.08,5167.22 2812.77,5172.45 2823.60,5191.73 2826.05,5195.48 2828.40,5198.42 2831.31,5201.54 2845.45,5213.93 2847.31,5215.67 2849.03,5217.53 2850.45,5219.22"/>
    <poly id="119127178" type="highway" color="26,26,26" fill="0" layer="-1.00" shape="2940.40,4759.88 2935.74,4768.20 2884.84,4855.13 2846.88,4919.96 2786.45,5023.16"/>
    <poly id="119128798" type="highway" color="26,26,26" fill="0" layer="-1.00" shape="2493.93,5241.26 2492.96,5240.53 2491.81,5239.85 2490.31,5239.23 2488.96,5238.88 2487.22,5238.67 2485.27,5238.78 2483.50,5239.19 2481.77,5239.92 2480.40,5240.78 2479.39,5241.61 2478.81,5242.21 2478.10,5243.05 2477.40,5244.10 2474.57,5248.79 2472.58,5253.93 2470.96,5259.35 2469.50,5265.41 2468.75,5268.54 2468.43,5269.89 2467.89,5271.23 2467.39,5272.14 2466.73,5273.06 2466.26,5273.58 2465.65,5274.20 2464.81,5274.87 2463.58,5275.60 2462.09,5276.20 2460.21,5276.60 2458.31,5276.60 2456.27,5276.19 2454.85,5275.59 2453.58,5274.84 2452.62,5274.05 2451.93,5273.32 2451.42,5272.68 2451.22,5272.39 2450.62,5271.38 2450.08,5270.13 2449.71,5268.65 2449.56,5266.99 2449.76,5265.16 2452.26,5255.16 2454.68,5246.72 2458.03,5239.36 2461.21,5233.99 2465.29,5229.47 2470.00,5225.39 2477.96,5220.10"/>
    <poly id="119128799" type="highway" color="26,26,26" fill="0" layer="-1.00" shape="2430.67,5369.58 2436.21,5377.03 2439.28,5384.21 2440.40,5393.44 2440.21,5403.15 2439.33,5411.54 2437.84,5418.63 2436.66,5424.23 2434.79,5432.27 2433.87,5441.45 2433.68,5443.36 2433.82,5445.12 2434.23,5446.68 2434.78,5447.99 2435.41,5449.05 2435.63,5449.37 2436.16,5450.04 2436.89,5450.80 2437.90,5451.63 2439.23,5452.43 2440.74,5453.07 2442.88,5453.50 2452.45,5454.46 2472.97,5456.52 2492.81,5458.51 2532.03,5462.44 2532.59,5458.68 2531.83,5454.95 2529.08,5451.28 2510.73,5426.41 2506.41,5421.67 2502.10,5418.04 2496.94,5414.83 2492.02,5413.02 2486.68,5411.84 2481.97,5411.79 2476.46,5412.78 2454.92,5417.97 2448.38,5419.23 2443.16,5419.28 2437.84,5418.63"/>
    <poly id="119128800" type="highway" color="26,26,26" fill="0" layer="-1.00" shape="2454.92,5417.97 2452.45,5454.46"/>
    <poly id="119128801" type="highway" color="26,26,26" fill="0" layer="-1.00" shape="2496.94,5414.83 2492.81,5458.51"/>
    <poly id="119128802" type="highway" color="26,26,26" fill="0" layer="-1.00" shape="2450.84,5285.83 2426.57,5279.64"/>
    <poly id="119128803" type="highway" color="26,26,26" fill="0" layer="-1.00" shape="2430.67,5369.58 2420.39,5355.27 2413.95,5346.53 2411.19,5342.64 2410.20,5338.47 2410.54,5334.50 2426.57,5279.64 2429.85,5268.39 2437.28,5242.54 2439.10,5237.49 2440.88,5232.56 2443.08,5227.52 2445.09,5223.78 2447.24,5220.27 2448.89,5217.80 2450.85,5215.76 2452.43,5214.33 2453.13,5213.62 2454.31,5212.65 2455.89,5211.65 2457.91,5210.81 2459.99,5210.33 2462.24,5210.21 2464.27,5210.44 2465.85,5210.86 2467.59,5211.58 2471.71,5213.74 2474.69,5216.19 2477.96,5220.10 2493.93,5241.26 2495.58,5243.47 2539.69,5302.52 2549.94,5316.35 2576.75,5352.18 2612.22,5323.71 2614.39,5321.99 2615.95,5320.46 2617.19,5319.03 2618.74,5316.88 2620.09,5314.43 2621.34,5311.31 2622.14,5307.96 2622.43,5304.76 2622.23,5300.86 2621.36,5297.00 2620.07,5293.78 2618.62,5291.22 2616.96,5288.93 2607.66,5276.64 2602.20,5270.83 2577.33,5250.33"/>
    <poly id="119128804" type="highway" color="26,26,26" fill="0" layer="-1.00" shape="2472.97,5456.52 2476.46,5412.78"/>
    <poly id="119128943" type="highway" color="26,26,26" fill="0" layer="-1.00" shape="3228.00,5525.21 3210.64,5524.94 3194.01,5524.87 3164.15,5525.21 3084.56,5525.98"/>
    <poly id="119128945" type="commercial" color="209,209,204" fill="1" layer="-3.00" shape="2517.22,5516.10 2527.78,5520.33 2538.45,5527.28 2548.58,5536.36 2556.31,5546.57 2562.21,5557.71 2569.92,5577.08 2576.51,5596.13 2581.44,5614.37 2584.72,5628.89 2585.95,5644.95 2583.90,5660.30 2577.39,5679.45 2570.35,5697.70 2559.64,5713.25 2520.52,5751.88 2499.01,5769.71 2474.23,5786.46 2454.05,5798.99 2435.03,5810.16 2410.73,5822.07 2389.28,5831.23 2293.65,5860.11 2375.53,5495.64 2517.22,5516.10"/>
    <poly id="119129300" type="water" color="181,209,209" fill="0" layer="-4.00" shape="2579.20,5470.02 2576.76,5789.06"/>
    <poly id="119129302" type="water" color="181,209,209" fill="0" layer="-4.00" shape="2576.76,5789.06 2576.59,5793.03 2575.97,5796.50 2574.29,5800.06 2571.70,5802.77 2542.88,5825.35 2531.81,5833.14 2519.61,5840.28 2475.11,5864.15 2432.78,5885.98 2427.31,5888.55 2423.01,5892.85 2420.84,5896.76 2415.93,5906.27 2411.39,5913.20 2406.52,5918.41 2402.24,5924.25 2397.93,5931.19 2394.18,5937.03 2389.05,5944.21 2385.42,5948.72 2381.93,5950.79 2376.71,5953.79 2371.53,5958.77 2364.21,5966.69 2358.25,5975.44 2353.55,5983.59 2348.70,5990.56 2344.71,5993.73 2339.47,5996.11 2335.69,5998.51 2333.24,6001.73 2332.69,6007.49 2331.32,6011.58 2328.70,6015.07 2322.99,6017.17 2318.96,6018.19 2316.38,6020.12 2315.24,6023.88 2314.45,6028.63 2312.61,6034.22 2308.40,6040.97 2305.12,6044.49 2292.10,6055.92"/>
    <poly id="119133705" type="highway" color="26,26,26" fill="0" layer="-1.00" shape="2379.83,5443.67 2398.33,5381.69 2401.72,5376.10 2405.86,5369.17 2410.46,5363.30 2414.42,5358.61 2420.39,5355.27 2429.58,5350.45 2439.45,5347.12 2501.04,5331.44 2505.15,5330.40 2509.57,5330.28 2513.37,5331.95 2520.64,5336.51"/>
    <poly id="119133707" type="parking" color="184,184,179" fill="1" layer="-1.00" shape="2554.28,5357.53 2566.12,5372.62 2554.19,5381.79 2547.81,5385.64 2541.78,5388.07 2537.65,5389.34 2532.12,5390.47 2525.78,5390.49 2519.56,5389.21 2514.62,5387.21 2510.57,5384.74 2507.48,5382.20 2505.18,5379.81 2503.64,5377.88 2502.58,5376.37 2500.80,5373.38 2499.30,5369.83 2495.33,5360.00 2514.15,5354.15 2517.30,5362.54 2518.18,5364.65 2518.90,5365.85 2519.21,5366.28 2519.84,5367.07 2520.70,5367.98 2521.88,5368.94 2523.43,5369.89 2525.24,5370.62 2527.73,5371.13 2530.10,5371.12 2532.83,5370.56 2535.28,5369.81 2539.08,5368.28 2543.17,5365.81 2554.28,5357.53"/>
    <poly id="119133708" type="parking" color="184,184,179" fill="1" layer="-1.00" shape="2369.68,5442.90 2388.84,5377.52 2392.89,5370.82 2397.35,5363.36 2402.45,5356.85 2405.35,5353.41 2420.93,5366.47 2418.28,5369.62 2414.19,5374.84 2410.35,5381.25 2407.61,5385.78 2388.70,5448.57 2369.68,5442.90"/>
    <poly id="119133709" type="parking" color="184,184,179" fill="1" layer="-1.00" shape="2505.19,5339.33 2440.96,5355.67 2434.27,5357.92 2429.58,5350.45 2439.45,5347.12 2501.04,5331.44 2505.19,5339.33"/>
    <poly id="119135011" type="highway" color="26,26,26" fill="1" layer="-1.00" shape="2595.78,5314.97 2580.67,5325.55 2534.13,5263.30 2549.52,5251.44 2595.78,5314.97"/>
    <poly id="119135012" type="parking" color="184,184,179" fill="1" layer="-1.00" shape="2487.52,5249.10 2495.58,5243.47 2503.72,5237.78 2548.06,5297.22 2539.69,5302.52 2531.39,5307.77 2487.52,5249.10"/>
    <poly id="119135014" type="parking" color="184,184,179" fill="1" layer="-1.00" shape="2435.61,5222.16 2432.08,5226.97 2440.88,5232.56 2439.10,5237.49 2437.28,5242.54 2429.85,5268.39 2439.45,5271.52 2442.11,5277.43 2451.42,5272.68 2451.93,5273.32 2452.62,5274.05 2453.58,5274.84 2454.85,5275.59 2456.27,5276.19 2458.31,5276.60 2460.21,5276.60 2462.09,5276.20 2463.58,5275.60 2464.81,5274.87 2465.65,5274.20 2466.26,5273.58 2466.73,5273.06 2467.39,5272.14 2467.89,5271.23 2468.43,5269.89 2468.75,5268.54 2469.50,5265.41 2476.87,5267.43 2478.53,5262.73 2480.70,5256.68 2482.30,5252.54 2485.62,5246.83 2480.40,5240.78 2481.77,5239.92 2483.50,5239.19 2485.27,5238.78 2487.22,5238.67 2488.96,5238.88 2490.31,5239.23 2491.81,5239.85 2492.96,5240.53 2493.93,5241.26 2495.58,5243.47 2503.72,5237.78 2485.75,5213.96 2481.74,5209.15 2477.26,5205.44 2471.82,5202.60 2469.04,5201.45 2466.11,5200.68 2462.54,5200.26 2458.59,5200.49 2454.85,5201.34 2451.28,5202.84 2448.47,5204.61 2446.38,5206.32 2445.04,5207.69 2443.65,5209.36 2442.13,5211.62 2441.27,5213.42 2435.61,5222.16"/>
    <poly id="119135017" type="parking" color="184,184,179" fill="1" layer="-1.00" shape="2602.20,5270.83 2590.68,5277.02 2571.38,5257.91 2577.33,5250.33 2602.20,5270.83"/>
    <poly id="119135018" type="parking" color="184,184,179" fill="1" layer="-1.00" shape="2485.75,5213.96 2492.23,5209.08 2494.06,5211.46 2513.80,5196.83 2517.70,5202.01 2521.82,5198.61 2586.73,5287.51 2603.04,5309.89 2606.26,5314.30 2603.67,5316.79 2607.34,5321.76 2586.92,5335.96 2582.32,5329.25 2575.37,5334.29 2557.73,5310.34 2548.06,5297.22 2503.72,5237.78 2485.75,5213.96"/>
    <poly id="119135018#1" type="building" color="red" fill="1" layer="4.00" shape="2485.75,5213.96 2492.23,5209.08 2494.06,5211.46 2513.80,5196.83 2517.70,5202.01 2521.82,5198.61 2586.73,5287.51 2603.04,5309.89 2606.26,5314.30 2603.67,5316.79 2607.34,5321.76 2586.92,5335.96 2582.32,5329.25 2575.37,5334.29 2557.73,5310.34 2548.06,5297.22 2503.72,5237.78 2485.75,5213.96"/>
    <poly id="119135020" type="highway" color="26,26,26" fill="0" layer="-1.00" shape="2409.06,5417.20 2418.47,5385.23 2420.87,5380.86 2423.78,5376.85 2426.92,5373.16 2430.67,5369.58 2433.59,5367.21 2437.15,5364.91 2441.00,5363.18 2445.16,5361.70 2489.15,5349.92 2495.07,5348.23 2500.37,5346.28 2504.90,5344.58 2515.82,5339.23 2520.64,5336.51 2526.49,5333.22 2536.49,5326.12 2549.94,5316.35 2557.73,5310.34"/>
    <poly id="119135022" type="highway" color="26,26,26" fill="0" layer="-1.00" shape="2595.78,5314.97 2603.04,5309.89"/>
    <poly id="119136087" type="building" color="red" fill="1" layer="4.00" shape="2469.94,5298.86 2479.84,5263.11 2492.32,5266.75 2518.98,5304.84 2515.06,5306.93 2517.59,5310.83 2523.55,5310.45 2526.51,5313.90 2526.85,5318.08 2523.19,5321.92 2518.33,5322.05 2515.36,5318.60 2434.51,5339.46 2434.15,5342.78 2429.08,5343.57 2414.59,5339.10 2418.03,5326.89 2419.78,5326.19 2430.04,5287.57 2469.94,5298.86"/>
    <poly id="119136088" type="highway" color="26,26,26" fill="0" layer="-1.00" shape="2540.04,5239.50 2514.65,5207.54 2500.13,5218.72 2525.06,5251.37"/>
    <poly id="119136089" type="building" color="red" fill="1" layer="4.00" shape="2455.81,5403.36 2496.29,5392.85 2487.90,5360.73 2447.42,5371.24 2455.81,5403.36"/>
    <poly id="119136090" type="highway" color="26,26,26" fill="0" layer="-1.00" shape="2525.06,5251.37 2534.18,5263.31 2580.68,5325.50 2595.74,5314.97 2549.52,5251.44 2540.04,5239.50"/>
    <poly id="119136091" type="building" color="red" fill="1" layer="4.00" shape="2557.31,5459.83 2600.76,5426.67 2589.79,5412.40 2604.02,5401.12 2608.14,5406.30 2637.40,5383.49 2629.71,5343.36 2617.77,5326.93 2585.04,5352.26 2590.93,5391.10 2579.96,5399.60 2566.94,5382.68 2523.49,5415.85 2557.31,5459.83"/>